Version 4
SHEET 1 1512 680
WIRE -208 -64 -208 -96
WIRE 1248 -48 1248 -80
WIRE 48 16 48 -16
WIRE 960 16 960 -16
WIRE 320 80 224 80
WIRE 464 80 400 80
WIRE 496 80 464 80
WIRE 608 80 496 80
WIRE 784 80 688 80
WIRE -208 96 -208 16
WIRE -144 96 -208 96
WIRE -80 96 -144 96
WIRE 1152 96 1088 96
WIRE 1248 96 1248 32
WIRE 1248 96 1152 96
WIRE 224 128 224 80
WIRE 224 128 176 128
WIRE 496 128 496 80
WIRE 784 128 784 80
WIRE 832 128 784 128
WIRE -80 144 -112 144
WIRE 1120 144 1088 144
WIRE -208 176 -304 176
WIRE -112 176 -112 144
WIRE -112 176 -208 176
WIRE -80 176 -112 176
WIRE 1120 176 1120 144
WIRE 1120 176 1088 176
WIRE 1152 176 1120 176
WIRE 1248 176 1216 176
WIRE 224 192 176 192
WIRE 832 192 784 192
WIRE 1232 192 1216 192
WIRE -304 208 -304 176
WIRE 1232 208 1232 192
WIRE -80 240 -160 240
WIRE 224 240 224 192
WIRE 320 240 224 240
WIRE 464 240 400 240
WIRE 496 240 496 192
WIRE 496 240 464 240
WIRE 624 240 496 240
WIRE 784 240 784 192
WIRE 784 240 704 240
WIRE 1168 240 1088 240
WIRE 1168 320 1168 240
WIRE -160 336 -160 240
WIRE 48 368 48 336
WIRE 960 368 960 336
WIRE 1168 384 1168 320
WIRE -160 400 -160 336
FLAG -160 480 0
FLAG 1168 464 0
FLAG 1440 112 0
FLAG 1440 32 VCC
IOPIN 1440 32 Out
FLAG 960 -16 VCC
IOPIN 960 -16 Out
FLAG 48 -16 VCC
IOPIN 48 -16 Out
FLAG 960 368 0
FLAG 48 368 0
FLAG -304 288 0
FLAG -144 96 Out_T1
FLAG 1152 96 Out_T2
FLAG 1232 208 0
FLAG -208 176 Enable
FLAG 1248 176 Enable
FLAG -160 336 Data_T1
FLAG 1168 320 Data_T2
FLAG 464 80 A
FLAG 464 240 B
FLAG -208 -96 VCC
IOPIN -208 -96 Out
FLAG 1248 -80 VCC
IOPIN 1248 -80 Out
SYMBOL SpecialFunctions\\LTC2862-1 48 176 R0
SYMATTR InstName U1
SYMBOL SpecialFunctions\\LTC2862-1 960 176 M0
SYMATTR InstName U2
SYMBOL voltage -160 384 R0
WINDOW 3 24 96 Left 0
WINDOW 123 0 0 Left 0
WINDOW 39 0 0 Left 0
SYMATTR Value PULSE(0 3.3 10u 1u 1u {1/10k} {1/5k})
SYMATTR InstName V1
SYMBOL voltage 1168 368 R0
WINDOW 3 24 96 Left 0
WINDOW 123 0 0 Left 0
WINDOW 39 0 0 Left 0
SYMATTR Value PULSE(0 3.3 10u 1u 1u {1/5k} {1/2.5k})
SYMATTR InstName V2
SYMBOL voltage 1440 16 R0
WINDOW 123 0 0 Left 0
WINDOW 39 0 0 Left 0
SYMATTR InstName V3
SYMATTR Value 3.3
SYMBOL voltage -304 192 R0
WINDOW 3 24 96 Left 0
WINDOW 123 0 0 Left 0
WINDOW 39 0 0 Left 0
SYMATTR Value PULSE(0 3.3 10u 1u 1u {1/200} {1/100})
SYMATTR InstName V4
SYMBOL res -192 32 R180
WINDOW 0 36 76 Left 2
WINDOW 3 36 40 Left 2
SYMATTR InstName R1
SYMATTR Value 10k
SYMBOL res 1232 48 M180
WINDOW 0 36 76 Left 2
WINDOW 3 36 40 Left 2
SYMATTR InstName R2
SYMATTR Value 10k
SYMBOL Digital\\inv 1216 112 M0
WINDOW 39 -286 144 Left 2
SYMATTR SpiceLine Vhigh=3.3 Vlow=0 Ref=1.0
SYMATTR InstName A1
SYMBOL ind 416 64 R90
WINDOW 0 5 56 VBottom 2
WINDOW 3 32 56 VTop 2
WINDOW 123 53 56 VTop 2
SYMATTR InstName L1
SYMATTR Value 50n
SYMATTR Value2 Rser=10
SYMBOL cap 480 128 R0
SYMATTR InstName C2
SYMATTR Value 100p
SYMBOL ind 704 64 R90
WINDOW 0 5 56 VBottom 2
WINDOW 3 32 56 VTop 2
WINDOW 123 53 56 VTop 2
SYMATTR InstName L2
SYMATTR Value 50n
SYMATTR Value2 Rser=10
SYMBOL ind 416 256 M270
WINDOW 0 32 56 VTop 2
WINDOW 3 5 56 VBottom 2
WINDOW 123 -16 56 VBottom 2
SYMATTR InstName L3
SYMATTR Value 50n
SYMATTR Value2 Rser=10
SYMBOL ind 720 256 M270
WINDOW 0 32 56 VTop 2
WINDOW 3 5 56 VBottom 2
WINDOW 123 -16 56 VBottom 2
SYMATTR InstName L4
SYMATTR Value 50n
SYMATTR Value2 Rser=10
TEXT 432 464 Left 2 !.tran 10m
TEXT 328 -8 Left 2 ;Barramento com Par Trançado
TEXT 384 360 Left 2 ;Impedâncias de Linha
RECTANGLE Normal 800 400 208 -32 2
